
* These parameters are extracted from the process corner wafers that are provided by AMI
* In this document slow-fast means: NMOS device slow and PMOS device fast.
* The fast-slow corner means: NMOS fast and PMOS slow. 
* DATE: May 24/02
* Tech: AMI_C5N
* LOT: T22Y_FS (fast-slow)                  WAF: 3103
* Temperature_parameters=Optimized 
.MODEL n NMOS (                                LEVEL   = 49
+VERSION = 3.1            TNOM    = 27             TOX     = 1.39E-8
+XJ      = 1.5E-7         NCH     = 1.7E17         VTH0    = 0.6406873
+K1      = 0.8993265      K2      = -0.1056377     K3      = 21.3163919
+K3B     = -7.1608652     W0      = 1E-8           NLX     = 1E-9
+DVT0W   = 0              DVT1W   = 0              DVT2W   = 0
+DVT0    = 3.5203013      DVT1    = 0.4082348      DVT2    = -0.0884394
+U0      = 459.8817656    UA      = 1E-13          UB      = 1.519768E-18
+UC      = 1.390305E-11   VSAT    = 1.618085E5     A0      = 0.6561988
+AGS     = 0.1483929      B0      = 2.633747E-6    B1      = 5E-6
+KETA    = 1.06352E-3     A1      = 7.568286E-5    A2      = 0.3677153
+RDSW    = 1.235008E3     PRWG    = 0.0513137      PRWB    = 0.0510984
+WR      = 1              WINT    = 2.396297E-7    LINT    = 3.585449E-8
+XL      = 0              XW      = 0              DWG     = -1.245253E-8
+DWB     = 5.532278E-8    VOFF    = 0              NFACTOR = 0.6559298
+CIT     = 0              CDSC    = 2.4E-4         CDSCD   = 0
+CDSCB   = 0              ETA0    = 0.0330898      ETAB    = -1.406156E-3
+DSUB    = 0.2997589      PCLM    = 2.6313228      PDIBLC1 = -0.40275
+PDIBLC2 = 2.205592E-3    PDIBLCB = -0.0272899     DROUT   = 0.7201569
+PSCBE1  = 5.601647E8     PSCBE2  = 5.450628E-5    PVAG    = 7.40725E-3
+DELTA   = 0.01           RSH     = 81.2           MOBMOD  = 1
+PRT     = 8.621          UTE     = -1             KT1     = -0.2501
+KT1L    = -2.58E-9       KT2     = 0              UA1     = 5.4E-10
+UB1     = -4.8E-19       UC1     = -7.5E-11       AT      = 1E5
+WL      = 0              WLN     = 1              WW      = 0
+WWN     = 1              WWL     = 0              LL      = 0
+LLN     = 1              LW      = 0              LWN     = 1
+LWL     = 0              CAPMOD  = 2              XPART   = 0.5
+CGDO    = 2.03E-10       CGSO    = 2.03E-10       CGBO    = 1E-9
+CJ      = 4.198358E-4    PB      = 0.99           MJ      = 0.4516115
+CJSW    = 3.241716E-10   PBSW    = 0.1000811      MJSW    = 0.1152935
+CJSWG   = 1.64E-10       PBSWG   = 0.1000811      MJSWG   = 0.1152935
+CF      = 0              PVTH0   = 0.0766435      PRDSW   = 163.0361088
+PK2     = -0.0297388     WKETA   = -0.0214699     LKETA   = -2.14921E-5 
+AF      = 1              KF      = 0)
*
.MODEL p PMOS (                                LEVEL   = 49
+VERSION = 3.1            TNOM    = 27             TOX     = 1.39E-8
+XJ      = 1.5E-7         NCH     = 1.7E17         VTH0    = -1.0173478
+K1      = 0.5658287      K2      = 0.0116517      K3      = 10.5698978
+K3B     = -0.7608774     W0      = 1E-8           NLX     = 9.01509E-8
+DVT0W   = 0              DVT1W   = 0              DVT2W   = 0
+DVT0    = 3.3035484      DVT1    = 0.5614757      DVT2    = -0.0733879
+U0      = 213.2201651    UA      = 2.872001E-9    UB      = 1.05947E-21
+UC      = -5.43332E-11   VSAT    = 1.545629E5     A0      = 0.4566597
+AGS     = 0              B0      = 6.789661E-7    B1      = 5E-6
+KETA    = -8.389653E-3   A1      = 4.693067E-8    A2      = 0.3
+RDSW    = 3E3            PRWG    = -0.046965      PRWB    = -6.108168E-5
+WR      = 1              WINT    = 2.938786E-7    LINT    = 5.685662E-8
+XL      = 0              XW      = 0              DWG     = -1.995328E-8
+DWB     = 2.020066E-8    VOFF    = -0.0719834     NFACTOR = 0.7501867
+CIT     = 0              CDSC    = 2.4E-4         CDSCD   = 0
+CDSCB   = 0              ETA0    = 0.1503769      ETAB    = -0.0623126
+DSUB    = 0.8623589      PCLM    = 2.2059151      PDIBLC1 = 0.0239419
+PDIBLC2 = 3.052934E-3    PDIBLCB = -0.0972847     DROUT   = 0.1509141
+PSCBE1  = 5.116843E9     PSCBE2  = 5E-10          PVAG    = 0
+DELTA   = 0.01           RSH     = 101.5          MOBMOD  = 1
+PRT     = 59.494         UTE     = -1             KT1     = -0.2942
+KT1L    = 1.68E-9        KT2     = 0              UA1     = 4.5E-9
+UB1     = -6.3E-18       UC1     = -1E-10         AT      = 1E3
+WL      = 0              WLN     = 1              WW      = 0
+WWN     = 1              WWL     = 0              LL      = 0
+LLN     = 1              LW      = 0              LWN     = 1
+LWL     = 0              CAPMOD  = 2              XPART   = 0.5
+CGDO    = 3.18E-10       CGSO    = 3.18E-10       CGBO    = 1E-9
+CJ      = 7.235521E-4    PB      = 0.9527404      MJ      = 0.4955303
+CJSW    = 2.692736E-10   PBSW    = 0.99           MJSW    = 0.295843
+CJSWG   = 6.4E-11        PBSWG   = 0.99           MJSWG   = 0.295843
+CF      = 0              PVTH0   = 5.98016E-3     PRDSW   = 14.8598424
+PK2     = 3.73981E-3     WKETA   = 2.574681E-3    LKETA   = -7.296621E-3 
+AF      = 1              KF      = 0)
*
