
* These parameters are extracted from the process corner wafers that are provided by AMI
* In this document slow-fast means: NMOS device slow and PMOS device fast.
* The fast-slow corner means: NMOS fast and PMOS slow. 
* DATE: May 28/02
* Tech: AMI_C5N
* LOT: T22Y_SF (slow-fast)                  WAF: 3108
* Temperature_parameters=Optimized 
.MODEL n NMOS (                                LEVEL   = 49
+VERSION = 3.1            TNOM    = 27             TOX     = 1.39E-8
+XJ      = 1.5E-7         NCH     = 1.7E17         VTH0    = 0.7149035
+K1      = 0.9483936      K2      = -0.1143426     K3      = 22.9362167
+K3B     = -7.5062363     W0      = 1E-8           NLX     = 1E-9
+DVT0W   = 0              DVT1W   = 0              DVT2W   = 0
+DVT0    = 3.3919449      DVT1    = 0.4489453      DVT2    = -0.1041249
+U0      = 457.716722     UA      = 1E-13          UB      = 1.372758E-18
+UC      = 9.187767E-12   VSAT    = 1.587379E5     A0      = 0.4423616
+AGS     = 0.074408       B0      = 2.495758E-6    B1      = 5E-6
+KETA    = -7.852725E-3   A1      = 0              A2      = 0.3722219
+RDSW    = 1.37701E3      PRWG    = 0.0473261      PRWB    = 0.0143246
+WR      = 1              WINT    = 2.276625E-7    LINT    = 3.643153E-8
+XL      = 0              XW      = 0              DWG     = -8.492651E-9
+DWB     = 5.745769E-8    VOFF    = -1.122941E-3   NFACTOR = 0.9488846
+CIT     = 0              CDSC    = 2.4E-4         CDSCD   = 0
+CDSCB   = 0              ETA0    = 0.0194621      ETAB    = -1.316507E-3
+DSUB    = 0.2373912      PCLM    = 2.609637       PDIBLC1 = -0.2869359
+PDIBLC2 = 2.596336E-3    PDIBLCB = -9.96922E-3    DROUT   = 0.6175652
+PSCBE1  = 5.8967E8       PSCBE2  = 8.951955E-5    PVAG    = 0
+DELTA   = 0.01           RSH     = 81.7           MOBMOD  = 1
+PRT     = 8.621          UTE     = -1             KT1     = -0.2501
+KT1L    = -2.58E-9       KT2     = 0              UA1     = 5.4E-10
+UB1     = -4.8E-19       UC1     = -7.5E-11       AT      = 1E5
+WL      = 0              WLN     = 1              WW      = 0
+WWN     = 1              WWL     = 0              LL      = 0
+LLN     = 1              LW      = 0              LWN     = 1
+LWL     = 0              CAPMOD  = 2              XPART   = 0.5
+CGDO    = 2.03E-10       CGSO    = 2.03E-10       CGBO    = 1E-9
+CJ      = 4.198358E-4    PB      = 0.99           MJ      = 0.4516115
+CJSW    = 3.241716E-10   PBSW    = 0.1000811      MJSW    = 0.1152935
+CJSWG   = 1.64E-10       PBSWG   = 0.1000811      MJSWG   = 0.1152935
+CF      = 0              PVTH0   = 0.0690695      PRDSW   = 181.3444668
+PK2     = -0.0304429     WKETA   = 0.0420944      LKETA   = -3.044755E-3 
+AF      = 1              KF      = 0)
*
.MODEL p PMOS (                                LEVEL   = 49
+VERSION = 3.1            TNOM    = 27             TOX     = 1.39E-8
+XJ      = 1.5E-7         NCH     = 1.7E17         VTH0    = -0.8558405
+K1      = 0.5644444      K2      = 6.387376E-3    K3      = 6.0462612
+K3B     = -0.5998096     W0      = 1E-8           NLX     = 3.340021E-8
+DVT0W   = 0              DVT1W   = 0              DVT2W   = 0
+DVT0    = 2.4979627      DVT1    = 0.5476217      DVT2    = -0.1143472
+U0      = 211.0603347    UA      = 2.770099E-9    UB      = 1.044234E-21
+UC      = -5.9315E-11    VSAT    = 1.779657E5     A0      = 1.1297757
+AGS     = 0.172519       B0      = 6.127953E-7    B1      = 5E-6
+KETA    = -1.991554E-3   A1      = 0              A2      = 0.3
+RDSW    = 3E3            PRWG    = -0.0477698     PRWB    = -1.197112E-4
+WR      = 1              WINT    = 2.778374E-7    LINT    = 5.81705E-8
+XL      = 0              XW      = 0              DWG     = -1.563705E-8
+DWB     = 2.218513E-8    VOFF    = -0.0660365     NFACTOR = 0.9061795
+CIT     = 0              CDSC    = 2.4E-4         CDSCD   = 0
+CDSCB   = 0              ETA0    = 0.1521419      ETAB    = -0.0473117
+DSUB    = 1              PCLM    = 2.3170883      PDIBLC1 = 0.0640318
+PDIBLC2 = 4.224165E-3    PDIBLCB = -0.0417139     DROUT   = 0.2703555
+PSCBE1  = 5.427801E9     PSCBE2  = 5.303858E-10   PVAG    = 0
+DELTA   = 0.01           RSH     = 102.2          MOBMOD  = 1
+PRT     = 59.494         UTE     = -1             KT1     = -0.2942
+KT1L    = 1.68E-9        KT2     = 0              UA1     = 4.5E-9
+UB1     = -6.3E-18       UC1     = -1E-10         AT      = 1E3
+WL      = 0              WLN     = 1              WW      = 0
+WWN     = 1              WWL     = 0              LL      = 0
+LLN     = 1              LW      = 0              LWN     = 1
+LWL     = 0              CAPMOD  = 2              XPART   = 0.5
+CGDO    = 2.64E-10       CGSO    = 2.64E-10       CGBO    = 1E-9
+CJ      = 7.235521E-4    PB      = 0.9527404      MJ      = 0.4955303
+CJSW    = 2.692736E-10   PBSW    = 0.99           MJSW    = 0.295843
+CJSWG   = 6.4E-11        PBSWG   = 0.99           MJSWG   = 0.295843
+CF      = 0              PVTH0   = 5.98016E-3     PRDSW   = 14.8598424
+PK2     = 3.73981E-3     WKETA   = 3.730632E-3    LKETA   = -4.016397E-3 
+AF      = 1              KF      = 0)
*
